// Generated for: spectre
// Generated on: Oct 17 20:42:25 2024
// Design library name: lab3_dmikolay
// Design cell name: sim_part2_circuit
// Design view name: schematic
simulator lang=spectre
global 0 vdd!
