// Generated for: spectre
// Generated on: Oct 30 18:10:30 2024
// Design library name: lab4_dmikolay
// Design cell name: sim_mirror_FA
// Design view name: schematic
simulator lang=spectre
global 0 vdd!
