// Generated for: spectre
// Generated on: Sep  4 23:19:25 2024
// Design library name: lab1_dmikolay
// Design cell name: nor3
// Design view name: schematic
simulator lang=spectre
global 0 vdd!
