// Default Spectre Simulation run title card.


// Generated for: spectre
// Generated on: Oct 17 16:41:05 2024
// Design library name: lab3_dmikolay
// Design cell name: part2_circuit
// Design view name: schematic
simulator lang=spectre
global 0 vdd!


// Included Model Files

include "$CDK_DIR/models/spectre/standalone/ami06N.m"

include "$CDK_DIR/models/spectre/standalone/ami06P.m"



// Library name: lab3_dmikolay
// Cell name: part2_circuit
// View name: schematic
N4 (net14 a 0 0) ami06N w=4.5u l=600n as=6.75e-12 ad=6.75e-12 ps=12.0u \
        pd=12.0u m=1 region=sat
N3 (net14 b 0 0) ami06N w=4.5u l=600n as=6.75e-12 ad=6.75e-12 ps=12.0u \
        pd=12.0u m=1 region=sat
N0 (y d net29 0) ami06N w=4.5u l=600n as=6.75e-12 ad=6.75e-12 ps=12.0u \
        pd=12.0u m=1 region=sat
N2 (net28 e net14 0) ami06N w=4.5u l=600n as=6.75e-12 ad=6.75e-12 ps=12.0u \
        pd=12.0u m=1 region=sat
N1 (y f net28 0) ami06N w=4.5u l=600n as=6.75e-12 ad=6.75e-12 ps=12.0u \
        pd=12.0u m=1 region=sat
N5 (net29 c net14 0) ami06N w=4.5u l=600n as=6.75e-12 ad=6.75e-12 ps=12.0u \
        pd=12.0u m=1 region=sat
P4 (y b net27 vdd!) ami06P w=6u l=600n as=9e-12 ad=9e-12 ps=15.0u pd=15.0u \
        m=1 region=sat
P5 (net27 a vdd! vdd!) ami06P w=6u l=600n as=9e-12 ad=9e-12 ps=15.0u \
        pd=15.0u m=1 region=sat
P3 (net21 c vdd! vdd!) ami06P w=6u l=600n as=9e-12 ad=9e-12 ps=15.0u \
        pd=15.0u m=1 region=sat
P0 (y e net21 vdd!) ami06P w=6u l=600n as=9e-12 ad=9e-12 ps=15.0u pd=15.0u \
        m=1 region=sat
P1 (y f net21 vdd!) ami06P w=6u l=600n as=9e-12 ad=9e-12 ps=15.0u pd=15.0u \
        m=1 region=sat
P6 (net21 d vdd! vdd!) ami06P w=6u l=600n as=9e-12 ad=9e-12 ps=15.0u \
        pd=15.0u m=1 region=sat
V1 (0 0) vsource type=dc dc=0
V0 (vdd! 0) vsource type=dc dc=5

// Spectre Source Statements

// Spectre Analyses and Output Options Statements

// Output Options
simOptions options
//+      reltol = 1.00000000E-03
//+      vabstol = 1.00000000E-06
//+      iabstol = 1.00000000E-12
//+      temp = 27
//+      save = allpub
//+      currents = selected

// Analyses
// dc1 dc oppoint=logfile homotopy=all
tran1 tran start=0 stop=210n step=0.1n errpreset=moderate



// End of Netlist
