// Generated for: spectre
// Generated on: Sep  4 20:32:43 2024
// Design library name: lab1_dmikolay
// Design cell name: nand2
// Design view name: schematic
simulator lang=spectre
global 0 vdd!
